Version 4
SHEET 1 1096 680
WIRE 464 -16 336 -16
WIRE 336 48 336 -16
WIRE 144 112 96 112
WIRE 288 128 208 128
WIRE 464 128 464 -16
WIRE 144 144 0 144
WIRE 0 176 0 144
WIRE 96 176 96 112
WIRE 336 176 336 144
WIRE 336 176 96 176
WIRE 336 208 336 176
WIRE 0 320 0 256
WIRE 336 320 336 288
WIRE 464 320 464 208
FLAG 0 320 0
FLAG 336 320 0
FLAG 464 320 0
SYMBOL voltage 0 160 R0
WINDOW 123 0 0 Left 0
WINDOW 39 0 0 Left 0
SYMATTR InstName V1
SYMATTR Value 5V
SYMBOL voltage 464 112 R0
WINDOW 123 0 0 Left 0
WINDOW 39 24 124 Left 2
SYMATTR InstName V2
SYMATTR Value PULSE(1V 5V 100m 0.01m 0.01m 100m 200m 1000)
SYMATTR SpiceLine Rser=10
SYMBOL Opamps\\opamp 176 64 R0
SYMATTR InstName U1
SYMBOL res 320 192 R0
SYMATTR InstName R1
SYMATTR Value 1
SYMBOL nmos 288 48 R0
SYMATTR InstName M1
SYMATTR Value 2N7002
TEXT -242 32 Left 2 !.tran 0 1 0
TEXT -240 0 Left 2 !.lib opamp.sub
