Version 4
SHEET 1 880 680
WIRE 656 0 400 0
WIRE 400 64 400 0
WIRE 176 112 176 48
WIRE 160 128 0 128
WIRE 352 144 224 144
WIRE -176 160 -176 128
WIRE 160 160 96 160
WIRE 656 160 656 0
WIRE -176 208 -176 160
WIRE 0 208 0 128
WIRE 96 208 96 160
WIRE 400 208 400 160
WIRE 400 208 96 208
WIRE 176 224 176 176
WIRE 400 224 400 208
WIRE 176 256 176 224
WIRE -176 352 -176 288
WIRE 0 352 0 288
WIRE 400 352 400 304
WIRE 656 352 656 240
FLAG 400 352 0
FLAG 0 352 0
FLAG 656 352 0
FLAG -176 352 0
FLAG -176 160 2.7V
FLAG 176 48 0
FLAG 176 224 2.7V
SYMBOL voltage 0 192 R0
WINDOW 123 0 0 Left 0
WINDOW 39 0 0 Left 0
SYMATTR InstName V1
SYMATTR Value PULSE(0 0.1 0.5 0.1 0.1 0.3 1 2)
SYMBOL res 384 208 R0
SYMATTR InstName R1
SYMATTR Value 0.1
SYMBOL nmos 352 64 R0
SYMATTR InstName M1
SYMATTR Value BSC010NE2LSI
SYMBOL voltage 656 144 R0
WINDOW 123 0 0 Left 0
WINDOW 39 0 0 Left 0
SYMATTR InstName V2
SYMATTR Value 3.7V
SYMBOL voltage -176 192 R0
WINDOW 123 0 0 Left 0
WINDOW 39 0 0 Left 0
SYMATTR InstName V3
SYMATTR Value 2.7V
SYMBOL Opamps\\LT1218 192 144 M180
SYMATTR InstName U2
TEXT -218 376 Left 2 !.tran 0 2 0
